
  EPA STORM WATER MANAGEMENT MODEL - VERSION 5.1 (Build 5.1.014)
  --------------------------------------------------------------

  
  *********************************************************
  NOTE: The summary statistics displayed in this report are
  based on results found at every computational time step,  
  not just on results from each reporting time step.
  *********************************************************
  
  ****************
  Analysis Options
  ****************
  Flow Units ............... CFS
  Process Models:
    Rainfall/Runoff ........ YES
    RDII ................... NO
    Snowmelt ............... NO
    Groundwater ............ NO
    Flow Routing ........... YES
    Ponding Allowed ........ NO
    Water Quality .......... NO
  Infiltration Method ...... HORTON
  Flow Routing Method ...... KINWAVE
  Starting Date ............ 06/01/2020 00:00:00
  Ending Date .............. 06/03/2020 00:00:00
  Antecedent Dry Days ...... 0.0
  Report Time Step ......... 00:01:00
  Wet Time Step ............ 00:01:00
  Dry Time Step ............ 01:00:00
  Routing Time Step ........ 10.00 sec
  
  
  **************************        Volume         Depth
  Runoff Quantity Continuity     acre-feet        inches
  **************************     ---------       -------
  Total Precipitation ......         0.256         2.362
  Evaporation Loss .........         0.000         0.000
  Infiltration Loss ........         0.181         1.672
  Surface Runoff ...........         0.074         0.683
  Final Storage ............         0.001         0.008
  Continuity Error (%) .....        -0.013
  
  
  **************************        Volume        Volume
  Flow Routing Continuity        acre-feet      10^6 gal
  **************************     ---------     ---------
  Dry Weather Inflow .......         0.000         0.000
  Wet Weather Inflow .......         0.074         0.024
  Groundwater Inflow .......         0.000         0.000
  RDII Inflow ..............         0.000         0.000
  External Inflow ..........         0.070         0.023
  External Outflow .........         0.143         0.047
  Flooding Loss ............         0.000         0.000
  Evaporation Loss .........         0.000         0.000
  Exfiltration Loss ........         0.000         0.000
  Initial Stored Volume ....         0.000         0.000
  Final Stored Volume ......         0.000         0.000
  Continuity Error (%) .....         0.294
  
  
  ********************************
  Highest Flow Instability Indexes
  ********************************
  All links are stable.
  
  
  *************************
  Routing Time Step Summary
  *************************
  Minimum Time Step           :    10.00 sec
  Average Time Step           :    10.00 sec
  Maximum Time Step           :    10.00 sec
  Percent in Steady State     :     0.00
  Average Iterations per Step :     1.09
  Percent Not Converging      :     0.00
  
  
  ***************************
  Subcatchment Runoff Summary
  ***************************
  
  ------------------------------------------------------------------------------------------------------------------------------
                            Total      Total      Total      Total     Imperv       Perv      Total       Total     Peak  Runoff
                           Precip      Runon       Evap      Infil     Runoff     Runoff     Runoff      Runoff   Runoff   Coeff
  Subcatchment                 in         in         in         in         in         in         in    10^6 gal      CFS
  ------------------------------------------------------------------------------------------------------------------------------
  S1                         2.36       0.00       0.00       1.02       1.16       0.16       1.32        0.01     0.33   0.559
  S2                         2.36       0.00       0.00       1.68       0.47       0.21       0.67        0.01     0.49   0.284
  S3                         2.36       0.00       0.00       1.88       0.23       0.25       0.48        0.01     0.59   0.204
  
  
  ******************
  Node Depth Summary
  ******************
  
  ---------------------------------------------------------------------------------
                                 Average  Maximum  Maximum  Time of Max    Reported
                                   Depth    Depth      HGL   Occurrence   Max Depth
  Node                 Type         Feet     Feet     Feet  days hr:min        Feet
  ---------------------------------------------------------------------------------
  J1                   JUNCTION     0.02     0.18     8.18     0  12:06        0.18
  J2                   JUNCTION     0.02     0.21     8.21     0  12:06        0.21
  J3                   JUNCTION     0.02     0.23     5.23     0  12:06        0.23
  J4                   JUNCTION     0.03     0.26     5.76     0  12:06        0.26
  J6                   JUNCTION     0.03     0.32     2.82     0  12:06        0.32
  O1                   OUTFALL      0.03     0.32     0.32     0  12:06        0.32
  
  
  *******************
  Node Inflow Summary
  *******************
  
  -------------------------------------------------------------------------------------------------
                                  Maximum  Maximum                  Lateral       Total        Flow
                                  Lateral    Total  Time of Max      Inflow      Inflow     Balance
                                   Inflow   Inflow   Occurrence      Volume      Volume       Error
  Node                 Type           CFS      CFS  days hr:min    10^6 gal    10^6 gal     Percent
  -------------------------------------------------------------------------------------------------
  J1                   JUNCTION      0.33     0.33     0  12:06      0.0148      0.0148       0.000
  J2                   JUNCTION      0.49     0.49     0  12:06      0.0167      0.0167       0.000
  J3                   JUNCTION      0.59     0.59     0  12:06      0.0154      0.0154       0.000
  J4                   JUNCTION      0.00     0.82     0  12:06           0      0.0314       0.000
  J6                   JUNCTION      0.00     1.39     0  12:06           0      0.0468       0.000
  O1                   OUTFALL       0.00     1.39     0  12:06           0      0.0467       0.000
  
  
  *********************
  Node Flooding Summary
  *********************
  
  No nodes were flooded.
  
  
  ***********************
  Outfall Loading Summary
  ***********************
  
  -----------------------------------------------------------
                         Flow       Avg       Max       Total
                         Freq      Flow      Flow      Volume
  Outfall Node           Pcnt       CFS       CFS    10^6 gal
  -----------------------------------------------------------
  O1                    50.08      0.07      1.39       0.047
  -----------------------------------------------------------
  System                50.08      0.07      1.39       0.047
  
  
  ********************
  Link Flow Summary
  ********************
  
  -----------------------------------------------------------------------------
                                 Maximum  Time of Max   Maximum    Max/    Max/
                                  |Flow|   Occurrence   |Veloc|    Full    Full
  Link                 Type          CFS  days hr:min    ft/sec    Flow   Depth
  -----------------------------------------------------------------------------
  C1                   CONDUIT      0.33     0  12:06      5.16    0.29    0.37
  C3                   CONDUIT      0.59     0  12:06      5.90    0.31    0.39
  C2                   CONDUIT      0.48     0  12:06      5.59    0.26    0.35
  C4                   CONDUIT      0.81     0  12:06      5.87    0.22    0.32
  C5                   CONDUIT      1.39     0  12:06      7.32    0.34    0.41
  
  
  *************************
  Conduit Surcharge Summary
  *************************
  
  No conduits were surcharged.
  

  Analysis begun on:  Wed Jun 10 15:52:16 2020
  Analysis ended on:  Wed Jun 10 15:52:17 2020
  Total elapsed time: 00:00:01